<?xml version="1.0" encoding="UTF-8"?>
<configuration>
    <input>
        <net-file value="maltepe.net.xml"/>
        <route-files value="maltepe.rou.xml"/>
    </input>
    <processing>
        <ignore-route-errors value="true"/>
        <begin value="0"/>
        <end value="5000"/>
    </processing>
    <report>
        <no-warnings value="true"/>
        <no-step-log value="true"/>
    </report>
</configuration>