<?xml version="1.0" encoding="UTF-8"?>

<!-- generated on 2026-01-28T11:32:47.314515+03:00 by Eclipse SUMO netconvert 1.25.0
<netconvertConfiguration xmlns:xsi="http://www.w3.org/2001/XMLSchema-instance" xsi:noNamespaceSchemaLocation="http://sumo.dlr.de/xsd/netconvertConfiguration.xsd">

    <input>
        <osm-files value="maltepe.osm"/>
    </input>

    <output>
        <output-file value="maltepe.net.xml"/>
    </output>

    <projection>
        <proj.utm value="true"/>
    </projection>

</netconvertConfiguration>
-->

<net version="1.20" junctionCornerDetail="5" limitTurnSpeed="5.50" xmlns:xsi="http://www.w3.org/2001/XMLSchema-instance" xsi:noNamespaceSchemaLocation="http://sumo.dlr.de/xsd/net_file.xsd">

    <location netOffset="-670274.58,-4528413.13" convBoundary="0.00,0.00,18755.77,12747.16" origBoundary="29.024325,40.884991,29.243669,41.003690" projParameter="+proj=utm +zone=35 +ellps=WGS84 +datum=WGS84 +units=m +no_defs"/>

    <type id="highway.footway" priority="1" numLanes="1" speed="2.78" allow="pedestrian" oneway="1" width="2.00"/>
    <type id="highway.residential" priority="3" numLanes="1" speed="13.89" disallow="tram rail_urban rail rail_electric rail_fast ship container cable_car subway aircraft wheelchair scooter drone" oneway="0"/>
    <type id="highway.secondary" priority="11" numLanes="1" speed="27.78" disallow="tram rail_urban rail rail_electric rail_fast ship container cable_car subway aircraft wheelchair scooter drone" oneway="0"/>
    <type id="highway.secondary_link" priority="6" numLanes="1" speed="22.22" disallow="tram rail_urban rail rail_electric rail_fast ship container cable_car subway aircraft wheelchair scooter drone" oneway="0"/>
    <type id="highway.service" priority="1" numLanes="1" speed="5.56" allow="pedestrian delivery bicycle" oneway="0"/>
    <type id="highway.steps" priority="1" numLanes="1" speed="1.39" allow="pedestrian" oneway="1" width="2.00"/>
    <type id="highway.tertiary" priority="10" numLanes="1" speed="22.22" disallow="tram rail_urban rail rail_electric rail_fast ship container cable_car subway aircraft wheelchair scooter drone" oneway="0"/>
    <type id="highway.trunk" priority="13" numLanes="2" speed="27.78" disallow="pedestrian bicycle tram rail_urban rail rail_electric rail_fast ship container cable_car subway aircraft wheelchair scooter drone" oneway="0"/>
    <type id="highway.trunk_link" priority="8" numLanes="1" speed="22.22" disallow="pedestrian bicycle tram rail_urban rail rail_electric rail_fast ship container cable_car subway aircraft wheelchair scooter drone" oneway="0"/>
    <type id="railway.subway" priority="18" numLanes="1" speed="27.78" allow="subway" oneway="1"/>

    <edge id=":11960055665_0" function="internal">
        <lane id=":11960055665_0_0" index="0" disallow="pedestrian bicycle tram rail_urban rail rail_electric rail_fast ship container cable_car subway aircraft wheelchair scooter drone" speed="23.61" length="35.72" shape="11132.25,4147.21 11166.46,4136.92"/>
    </edge>
    <edge id=":11960055665_1" function="internal">
        <lane id=":11960055665_1_0" index="0" disallow="pedestrian bicycle tram rail_urban rail rail_electric rail_fast ship container cable_car subway aircraft wheelchair scooter drone" speed="25.00" length="35.76" shape="11133.45,4150.71 11166.46,4136.92"/>
        <lane id=":11960055665_1_1" index="1" disallow="pedestrian bicycle tram rail_urban rail rail_electric rail_fast ship container cable_car subway aircraft wheelchair scooter drone" speed="25.00" length="35.76" shape="11134.61,4153.69 11167.61,4139.90"/>
        <lane id=":11960055665_1_2" index="2" disallow="pedestrian bicycle tram rail_urban rail rail_electric rail_fast ship container cable_car subway aircraft wheelchair scooter drone" speed="25.00" length="35.76" shape="11135.78,4156.68 11168.76,4142.89"/>
    </edge>
    <edge id=":11960072274_0" function="internal">
        <lane id=":11960072274_0_0" index="0" disallow="tram rail_urban rail rail_electric rail_fast ship container cable_car subway aircraft wheelchair scooter drone" speed="6.64" length="9.72" shape="11247.30,4154.28 11245.90,4151.98 11244.12,4150.71 11241.95,4150.47 11239.41,4151.26"/>
    </edge>
    <edge id=":11960072274_1" function="internal">
        <lane id=":11960072274_1_0" index="0" disallow="tram rail_urban rail rail_electric rail_fast ship container cable_car subway aircraft wheelchair scooter drone" speed="7.80" length="13.02" shape="11247.30,4154.28 11246.06,4150.36 11246.01,4147.15 11247.16,4144.66 11249.52,4142.88"/>
    </edge>
    <edge id=":11960072274_2" function="internal">
        <lane id=":11960072274_2_0" index="0" disallow="tram rail_urban rail rail_electric rail_fast ship container cable_car subway aircraft wheelchair scooter drone" speed="3.66" length="4.73" shape="11247.30,4154.28 11247.35,4152.82 11247.82,4152.05 11248.72,4151.97 11250.05,4152.57"/>
    </edge>
    <edge id=":11960072274_3" function="internal">
        <lane id=":11960072274_3_0" index="0" disallow="tram rail_urban rail rail_electric rail_fast ship container cable_car subway aircraft wheelchair scooter drone" speed="6.11" length="7.62" shape="11250.90,4145.77 11249.67,4146.76 11249.12,4148.22 11249.25,4150.16 11250.05,4152.57"/>
    </edge>
    <edge id=":11960072274_4" function="internal">
        <lane id=":11960072274_4_0" index="0" disallow="tram rail_urban rail rail_electric rail_fast ship container cable_car subway aircraft wheelchair scooter drone" speed="27.78" length="12.73" shape="11250.90,4145.77 11239.41,4151.26"/>
    </edge>
    <edge id=":11960072274_5" function="internal">
        <lane id=":11960072274_5_0" index="0" disallow="tram rail_urban rail rail_electric rail_fast ship container cable_car subway aircraft wheelchair scooter drone" speed="3.65" length="1.44" shape="11250.90,4145.77 11249.47,4145.57"/>
    </edge>
    <edge id=":11960072274_9" function="internal">
        <lane id=":11960072274_9_0" index="0" disallow="tram rail_urban rail rail_electric rail_fast ship container cable_car subway aircraft wheelchair scooter drone" speed="3.65" length="3.23" shape="11249.47,4145.57 11248.76,4145.02 11248.78,4144.12 11249.52,4142.88"/>
    </edge>
    <edge id=":11960072274_6" function="internal">
        <lane id=":11960072274_6_0" index="0" disallow="tram rail_urban rail rail_electric rail_fast ship container cable_car subway aircraft wheelchair scooter drone" speed="27.78" length="12.73" shape="11238.03,4148.37 11249.52,4142.88"/>
    </edge>
    <edge id=":11960072274_7" function="internal">
        <lane id=":11960072274_7_0" index="0" disallow="tram rail_urban rail rail_electric rail_fast ship container cable_car subway aircraft wheelchair scooter drone" speed="8.01" length="4.28" shape="11238.03,4148.37 11241.96,4147.12 11242.12,4147.13"/>
    </edge>
    <edge id=":11960072274_8" function="internal">
        <lane id=":11960072274_8_0" index="0" disallow="tram rail_urban rail rail_electric rail_fast ship container cable_car subway aircraft wheelchair scooter drone" speed="3.65" length="1.44" shape="11238.03,4148.37 11239.46,4148.58"/>
    </edge>
    <edge id=":11960072274_10" function="internal">
        <lane id=":11960072274_10_0" index="0" disallow="tram rail_urban rail rail_electric rail_fast ship container cable_car subway aircraft wheelchair scooter drone" speed="8.01" length="10.36" shape="11242.12,4147.13 11245.27,4147.40 11247.97,4149.22 11250.05,4152.57"/>
    </edge>
    <edge id=":11960072274_11" function="internal">
        <lane id=":11960072274_11_0" index="0" disallow="tram rail_urban rail rail_electric rail_fast ship container cable_car subway aircraft wheelchair scooter drone" speed="3.65" length="3.23" shape="11239.46,4148.58 11240.17,4149.13 11240.15,4150.02 11239.41,4151.26"/>
    </edge>
    <edge id=":11960072277_0" function="internal">
        <lane id=":11960072277_0_0" index="0" disallow="pedestrian bicycle tram rail_urban rail rail_electric rail_fast ship container cable_car subway aircraft wheelchair scooter drone" speed="22.22" length="0.10" shape="10944.68,4387.29 10944.68,4387.29"/>
    </edge>
    <edge id=":11960072278_0" function="internal">
        <lane id=":11960072278_0_0" index="0" disallow="pedestrian bicycle tram rail_urban rail rail_electric rail_fast ship container cable_car subway aircraft wheelchair scooter drone" speed="22.22" length="0.10" shape="10989.54,4335.86 10989.54,4335.86"/>
    </edge>
    <edge id=":11960072281_0" function="internal">
        <lane id=":11960072281_0_0" index="0" disallow="pedestrian bicycle tram rail_urban rail rail_electric rail_fast ship container cable_car subway aircraft wheelchair scooter drone" speed="25.00" length="12.13" shape="10942.36,4234.46 10942.25,4237.78 10942.10,4240.56 10942.19,4243.31 10942.76,4246.54"/>
    </edge>
    <edge id=":11960072281_1" function="internal">
        <lane id=":11960072281_1_0" index="0" disallow="tram rail_urban rail rail_electric rail_fast ship container cable_car subway aircraft wheelchair scooter drone" speed="27.78" length="12.13" shape="10938.74,4235.11 10939.93,4238.19 10940.94,4240.76 10941.86,4243.37 10942.76,4246.54"/>
    </edge>
    <edge id=":12162461571_0" function="internal">
        <lane id=":12162461571_0_0" index="0" disallow="tram rail_urban rail rail_electric rail_fast ship container cable_car subway aircraft wheelchair scooter drone" speed="3.65" length="4.67" shape="9910.38,3610.11 9910.45,3608.66 9910.92,3607.91 9911.82,3607.84 9913.12,3608.45"/>
    </edge>
    <edge id=":12180595134_0" function="internal">
        <lane id=":12180595134_0_0" index="0" allow="pedestrian delivery bicycle" speed="4.98" length="5.07" shape="10794.38,4449.57 10793.29,4448.68 10792.20,4448.38 10791.10,4448.66 10790.00,4449.53"/>
    </edge>
    <edge id=":12180595134_1" function="internal">
        <lane id=":12180595134_1_0" index="0" allow="pedestrian delivery bicycle" speed="3.65" length="4.67" shape="10794.38,4449.57 10794.16,4448.15 10794.47,4447.31 10795.33,4447.06 10796.73,4447.40"/>
    </edge>
    <edge id=":12180595134_2" function="internal">
        <lane id=":12180595134_2_0" index="0" allow="pedestrian delivery bicycle" speed="5.25" length="5.25" shape="10796.51,4442.73 10795.74,4443.84 10795.52,4444.98 10795.86,4446.17 10796.73,4447.40"/>
    </edge>
    <edge id=":12180595134_3" function="internal">
        <lane id=":12180595134_3_0" index="0" disallow="tram rail_urban rail rail_electric rail_fast ship container cable_car subway aircraft wheelchair scooter drone" speed="27.78" length="9.41" shape="10796.51,4442.73 10790.00,4449.53"/>
    </edge>
    <edge id=":12184152077_0" function="internal">
        <lane id=":12184152077_0_0" index="0" allow="pedestrian delivery bicycle" speed="5.56" length="7.22" shape="11336.21,4248.14 11334.28,4248.83 11333.19,4249.78 11332.36,4251.11 11331.25,4252.96"/>
    </edge>
    <edge id=":12184152077_1" function="internal">
        <lane id=":12184152077_1_0" index="0" allow="pedestrian delivery bicycle" speed="5.56" length="5.93" shape="11336.21,4248.14 11330.38,4249.26"/>
    </edge>
    <edge id=":12872548288_0" function="internal">
        <lane id=":12872548288_0_0" index="0" disallow="tram rail_urban rail rail_electric rail_fast ship container cable_car subway aircraft wheelchair scooter drone" speed="13.89" length="5.03" shape="11279.73,4412.17 11276.65,4408.20"/>
    </edge>
    <edge id=":12872548288_1" function="internal">
        <lane id=":12872548288_1_0" index="0" disallow="tram rail_urban rail rail_electric rail_fast ship container cable_car subway aircraft wheelchair scooter drone" speed="13.89" length="5.03" shape="11279.18,4406.24 11282.26,4410.21"/>
    </edge>
    <edge id=":12947462319_0" function="internal">
        <lane id=":12947462319_0_0" index="0" allow="pedestrian delivery bicycle" speed="6.55" length="6.06" shape="10877.17,4149.18 10876.11,4148.93 10874.33,4149.14 10872.48,4149.54 10871.23,4149.85"/>
    </edge>
    <edge id=":12947462319_1" function="internal">
        <lane id=":12947462319_1_0" index="0" disallow="tram rail_urban rail rail_electric rail_fast ship container cable_car subway aircraft wheelchair scooter drone" speed="27.78" length="8.44" shape="10877.17,4149.18 10871.81,4142.66"/>
    </edge>
    <edge id=":12947462319_2" function="internal">
        <lane id=":12947462319_2_0" index="0" allow="pedestrian delivery bicycle" speed="4.71" length="5.66" shape="10870.46,4146.75 10872.01,4146.13 10872.75,4145.24 10872.68,4144.08 10871.81,4142.66"/>
    </edge>
    <edge id=":12947462319_3" function="internal">
        <lane id=":12947462319_3_0" index="0" allow="pedestrian delivery bicycle" speed="3.65" length="4.67" shape="10870.46,4146.75 10871.81,4147.24 10872.40,4147.91 10872.20,4148.79 10871.23,4149.85"/>
    </edge>
    <edge id=":12947462322_0" function="internal">
        <lane id=":12947462322_0_0" index="0" allow="pedestrian delivery bicycle" speed="4.66" length="6.10" shape="10851.23,4117.63 10849.87,4116.34 10848.73,4116.06 10847.81,4116.80 10847.12,4118.54"/>
    </edge>
    <edge id=":12947462322_1" function="internal">
        <lane id=":12947462322_1_0" index="0" disallow="tram rail_urban rail rail_electric rail_fast ship container cable_car subway aircraft wheelchair scooter drone" speed="27.78" length="10.92" shape="10851.23,4117.63 10844.29,4109.19"/>
    </edge>
    <edge id=":12947462322_2" function="internal">
        <lane id=":12947462322_2_0" index="0" allow="pedestrian delivery bicycle" speed="8.68" length="8.75" shape="10844.02,4117.74 10844.69,4114.67 10844.96,4112.22 10844.83,4110.40 10844.29,4109.19"/>
    </edge>
    <edge id=":12947462322_3" function="internal">
        <lane id=":12947462322_3_0" index="0" allow="pedestrian delivery bicycle" speed="3.65" length="4.67" shape="10844.02,4117.74 10845.09,4116.78 10845.97,4116.59 10846.64,4117.18 10847.12,4118.54"/>
    </edge>
    <edge id=":12962116279_0" function="internal">
        <lane id=":12962116279_0_0" index="0" disallow="pedestrian bicycle tram rail_urban rail rail_electric rail_fast ship container cable_car subway aircraft wheelchair scooter drone" speed="23.61" length="18.04" shape="10915.67,4301.79 10911.33,4305.64 10908.58,4309.29 10906.68,4312.74 10904.89,4316.01"/>
    </edge>
    <edge id=":12962116279_1" function="internal">
        <lane id=":12962116279_1_0" index="0" disallow="pedestrian bicycle tram rail_urban rail rail_electric rail_fast ship container cable_car subway aircraft wheelchair scooter drone" speed="25.00" length="18.11" shape="10915.67,4301.79 10901.53,4313.00"/>
        <lane id=":12962116279_1_1" index="1" disallow="pedestrian bicycle tram rail_urban rail rail_electric rail_fast ship container cable_car subway aircraft wheelchair scooter drone" speed="25.00" length="18.11" shape="10913.78,4299.21 10899.54,4310.50"/>
    </edge>
    <edge id=":13118675798_0" function="internal">
        <lane id=":13118675798_0_0" index="0" allow="pedestrian delivery bicycle" speed="4.94" length="5.05" shape="10855.54,4106.31 10854.52,4107.29 10854.08,4108.34 10854.23,4109.45 10854.96,4110.62"/>
    </edge>
    <edge id=":13118675798_1" function="internal">
        <lane id=":13118675798_1_0" index="0" allow="pedestrian delivery bicycle" speed="3.65" length="4.67" shape="10855.54,4106.31 10854.09,4106.37 10853.30,4105.95 10853.16,4105.07 10853.66,4103.72"/>
    </edge>
    <edge id=":13118675798_2" function="internal">
        <lane id=":13118675798_2_0" index="0" allow="pedestrian delivery bicycle" speed="5.19" length="5.19" shape="10849.09,4103.28 10850.08,4104.20 10851.17,4104.58 10852.36,4104.42 10853.66,4103.72"/>
    </edge>
    <edge id=":13118675798_3" function="internal">
        <lane id=":13118675798_3_0" index="0" disallow="tram rail_urban rail rail_electric rail_fast ship container cable_car subway aircraft wheelchair scooter drone" speed="27.78" length="9.40" shape="10849.09,4103.28 10854.96,4110.62"/>
    </edge>
    <edge id=":13118675799_0" function="internal">
        <lane id=":13118675799_0_0" index="0" allow="pedestrian delivery bicycle" speed="3.65" length="4.67" shape="10916.67,4058.21 10918.11,4058.16 10918.91,4058.57 10919.05,4059.46 10918.55,4060.81"/>
    </edge>
    <edge id=":13370398382_0" function="internal">
        <lane id=":13370398382_0_0" index="0" disallow="tram rail_urban rail rail_electric rail_fast ship container cable_car subway aircraft wheelchair scooter drone" speed="27.78" length="4.83" shape="10673.94,3870.30 10676.87,3874.14"/>
    </edge>
    <edge id=":13370398383_0" function="internal">
        <lane id=":13370398383_0_0" index="0" disallow="tram rail_urban rail rail_electric rail_fast ship container cable_car subway aircraft wheelchair scooter drone" speed="27.78" length="4.92" shape="10671.13,3878.76 10668.21,3874.80"/>
    </edge>
    <edge id=":13370398384_0" function="internal">
        <lane id=":13370398384_0_0" index="0" disallow="tram rail_urban rail rail_electric rail_fast ship container cable_car subway aircraft wheelchair scooter drone" speed="27.78" length="4.59" shape="10682.37,3893.86 10679.62,3890.19"/>
    </edge>
    <edge id=":13370398385_0" function="internal">
        <lane id=":13370398385_0_0" index="0" disallow="tram rail_urban rail rail_electric rail_fast ship container cable_car subway aircraft wheelchair scooter drone" speed="27.78" length="4.64" shape="10685.59,3885.71 10688.35,3889.44"/>
    </edge>
    <edge id=":13370398386_0" function="internal">
        <lane id=":13370398386_0_0" index="0" disallow="tram rail_urban rail rail_electric rail_fast ship container cable_car subway aircraft wheelchair scooter drone" speed="13.89" length="3.21" shape="10687.71,3876.90 10685.17,3878.87"/>
    </edge>
    <edge id=":13370398386_1" function="internal">
        <lane id=":13370398386_1_0" index="0" disallow="tram rail_urban rail rail_electric rail_fast ship container cable_car subway aircraft wheelchair scooter drone" speed="13.89" length="3.21" shape="10683.22,3876.33 10685.76,3874.37"/>
    </edge>
    <edge id=":13370398387_0" function="internal">
        <lane id=":13370398387_0_0" index="0" disallow="tram rail_urban rail rail_electric rail_fast ship container cable_car subway aircraft wheelchair scooter drone" speed="13.89" length="3.45" shape="10673.00,3888.41 10670.22,3890.45"/>
    </edge>
    <edge id=":13370398387_1" function="internal">
        <lane id=":13370398387_1_0" index="0" disallow="tram rail_urban rail rail_electric rail_fast ship container cable_car subway aircraft wheelchair scooter drone" speed="13.89" length="3.45" shape="10668.32,3887.87 10671.11,3885.83"/>
    </edge>
    <edge id=":1514398810_0" function="internal">
        <lane id=":1514398810_0_0" index="0" disallow="tram rail_urban rail rail_electric rail_fast ship container cable_car subway aircraft wheelchair scooter drone" speed="7.61" length="10.20" shape="11033.52,4409.75 11031.12,4409.39 11028.89,4409.92 11026.84,4411.35 11024.95,4413.67"/>
    </edge>
    <edge id=":1514398810_1" function="internal">
        <lane id=":1514398810_1_0" index="0" disallow="tram rail_urban rail rail_electric rail_fast ship container cable_car subway aircraft wheelchair scooter drone" speed="27.78" length="14.41" shape="11033.52,4409.75 11020.03,4404.68"/>
    </edge>
    <edge id=":1514398810_2" function="internal">
        <lane id=":1514398810_2_0" index="0" disallow="tram rail_urban rail rail_electric rail_fast ship container cable_car subway aircraft wheelchair scooter drone" speed="3.65" length="1.44" shape="11033.52,4409.75 11032.62,4408.62"/>
    </edge>
    <edge id=":1514398810_9" function="internal">
        <lane id=":1514398810_9_0" index="0" disallow="tram rail_urban rail rail_electric rail_fast ship container cable_car subway aircraft wheelchair scooter drone" speed="3.65" length="3.23" shape="11032.62,4408.62 11032.49,4407.74 11033.12,4407.10 11034.51,4406.71"/>
    </edge>
    <edge id=":1514398810_3" function="internal">
        <lane id=":1514398810_3_0" index="0" disallow="tram rail_urban rail rail_electric rail_fast ship container cable_car subway aircraft wheelchair scooter drone" speed="27.78" length="14.14" shape="11021.27,4401.73 11034.51,4406.71"/>
    </edge>
    <edge id=":1514398810_4" function="internal">
        <lane id=":1514398810_4_0" index="0" disallow="tram rail_urban rail rail_electric rail_fast ship container cable_car subway aircraft wheelchair scooter drone" speed="7.72" length="3.97" shape="11021.27,4401.73 11024.67,4403.77"/>
    </edge>
    <edge id=":1514398810_5" function="internal">
        <lane id=":1514398810_5_0" index="0" disallow="tram rail_urban rail rail_electric rail_fast ship container cable_car subway aircraft wheelchair scooter drone" speed="3.65" length="1.44" shape="11021.27,4401.73 11022.07,4402.93"/>
    </edge>
    <edge id=":1514398810_10" function="internal">
        <lane id=":1514398810_10_0" index="0" disallow="tram rail_urban rail rail_electric rail_fast ship container cable_car subway aircraft wheelchair scooter drone" speed="7.72" length="10.95" shape="11024.67,4403.77 11024.87,4403.89 11026.68,4406.60 11026.71,4409.86 11024.95,4413.67"/>
    </edge>
    <edge id=":1514398810_11" function="internal">
        <lane id=":1514398810_11_0" index="0" disallow="tram rail_urban rail rail_electric rail_fast ship container cable_car subway aircraft wheelchair scooter drone" speed="3.65" length="3.23" shape="11022.07,4402.93 11022.13,4403.82 11021.45,4404.40 11020.03,4404.68"/>
    </edge>
    <edge id=":1514398810_6" function="internal">
        <lane id=":1514398810_6_0" index="0" disallow="tram rail_urban rail rail_electric rail_fast ship container cable_car subway aircraft wheelchair scooter drone" speed="6.16" length="9.05" shape="11022.27,4411.93 11023.34,4409.61 11023.32,4407.63 11022.22,4405.99 11020.03,4404.68"/>
    </edge>
    <edge id=":1514398810_7" function="internal">
        <lane id=":1514398810_7_0" index="0" disallow="tram rail_urban rail rail_electric rail_fast ship container cable_car subway aircraft wheelchair scooter drone" speed="8.95" length="14.44" shape="11022.27,4411.93 11024.88,4408.75 11027.79,4406.82 11031.00,4406.14 11034.51,4406.71"/>
    </edge>
    <edge id=":1514398810_8" function="internal">
        <lane id=":1514398810_8_0" index="0" disallow="tram rail_urban rail rail_electric rail_fast ship container cable_car subway aircraft wheelchair scooter drone" speed="3.65" length="4.67" shape="11022.27,4411.93 11023.59,4411.35 11024.48,4411.45 11024.94,4412.23 11024.95,4413.67"/>
    </edge>
    <edge id=":1514398820_0" function="internal">
        <lane id=":1514398820_0_0" index="0" disallow="tram rail_urban rail rail_electric rail_fast ship container cable_car subway aircraft wheelchair scooter drone" speed="3.65" length="4.67" shape="11407.45,4562.72 11408.29,4563.89 11408.39,4564.78 11407.73,4565.39 11406.33,4565.72"/>
    </edge>
    <edge id=":1514399351_0" function="internal">
        <lane id=":1514399351_0_0" index="0" disallow="tram rail_urban rail rail_electric rail_fast ship container cable_car subway aircraft wheelchair scooter drone" speed="7.29" length="10.71" shape="11078.63,4424.17 11075.57,4423.67 11073.07,4424.10 11071.12,4425.47 11069.72,4427.78"/>
    </edge>
    <edge id=":1514399351_1" function="internal">
        <lane id=":1514399351_1_0" index="0" disallow="tram rail_urban rail rail_electric rail_fast ship container cable_car subway aircraft wheelchair scooter drone" speed="27.78" length="15.86" shape="11078.63,4424.17 11063.47,4419.51"/>
    </edge>
    <edge id=":1514399351_2" function="internal">
        <lane id=":1514399351_2_0" index="0" disallow="tram rail_urban rail rail_electric rail_fast ship container cable_car subway aircraft wheelchair scooter drone" speed="7.56" length="4.47" shape="11078.63,4424.17 11074.56,4422.33"/>
    </edge>
    <edge id=":1514399351_3" function="internal">
        <lane id=":1514399351_3_0" index="0" disallow="tram rail_urban rail rail_electric rail_fast ship container cable_car subway aircraft wheelchair scooter drone" speed="3.65" length="1.44" shape="11078.63,4424.17 11077.70,4423.07"/>
    </edge>
    <edge id=":1514399351_16" function="internal">
        <lane id=":1514399351_16_0" index="0" disallow="tram rail_urban rail rail_electric rail_fast ship container cable_car subway aircraft wheelchair scooter drone" speed="7.56" length="11.06" shape="11074.56,4422.33 11072.49,4419.76 11072.43,4416.47 11074.38,4412.45"/>
    </edge>
    <edge id=":1514399351_17" function="internal">
        <lane id=":1514399351_17_0" index="0" disallow="tram rail_urban rail rail_electric rail_fast ship container cable_car subway aircraft wheelchair scooter drone" speed="3.65" length="3.23" shape="11077.70,4423.07 11077.54,4422.19 11078.15,4421.53 11079.52,4421.10"/>
    </edge>
    <edge id=":1514399351_4" function="internal">
        <lane id=":1514399351_4_0" index="0" disallow="tram rail_urban rail rail_electric rail_fast ship container cable_car subway aircraft wheelchair scooter drone" speed="5.94" length="9.09" shape="11077.04,4414.24 11075.90,4416.59 11075.93,4418.52 11077.14,4420.02 11079.52,4421.10"/>
    </edge>
    <edge id=":1514399351_5" function="internal">
        <lane id=":1514399351_5_0" index="0" disallow="tram rail_urban rail rail_electric rail_fast ship container cable_car subway aircraft wheelchair scooter drone" speed="13.89" length="15.41" shape="11077.04,4414.24 11074.98,4417.45 11073.04,4420.83 11071.26,4424.29 11069.72,4427.78"/>
    </edge>
    <edge id=":1514399351_6" function="internal">
        <lane id=":1514399351_6_0" index="0" disallow="tram rail_urban rail rail_electric rail_fast ship container cable_car subway aircraft wheelchair scooter drone" speed="9.41" length="15.76" shape="11077.04,4414.24 11074.18,4417.55 11070.97,4419.53 11067.40,4420.18 11063.47,4419.51"/>
    </edge>
    <edge id=":1514399351_7" function="internal">
        <lane id=":1514399351_7_0" index="0" disallow="tram rail_urban rail rail_electric rail_fast ship container cable_car subway aircraft wheelchair scooter drone" speed="3.65" length="4.67" shape="11077.04,4414.24 11075.70,4414.78 11074.81,4414.67 11074.37,4413.89 11074.38,4412.45"/>
    </edge>
    <edge id=":1514399351_8" function="internal">
        <lane id=":1514399351_8_0" index="0" disallow="tram rail_urban rail rail_electric rail_fast ship container cable_car subway aircraft wheelchair scooter drone" speed="8.14" length="11.59" shape="11064.46,4416.47 11067.30,4416.94 11069.90,4416.43 11072.26,4414.93 11074.38,4412.45"/>
    </edge>
    <edge id=":1514399351_9" function="internal">
        <lane id=":1514399351_9_0" index="0" disallow="tram rail_urban rail rail_electric rail_fast ship container cable_car subway aircraft wheelchair scooter drone" speed="27.78" length="15.76" shape="11064.46,4416.47 11079.52,4421.10"/>
    </edge>
    <edge id=":1514399351_10" function="internal">
        <lane id=":1514399351_10_0" index="0" disallow="tram rail_urban rail rail_electric rail_fast ship container cable_car subway aircraft wheelchair scooter drone" speed="7.88" length="4.00" shape="11064.46,4416.47 11068.05,4418.24"/>
    </edge>
    <edge id=":1514399351_11" function="internal">
        <lane id=":1514399351_11_0" index="0" disallow="tram rail_urban rail rail_electric rail_fast ship container cable_car subway aircraft wheelchair scooter drone" speed="3.65" length="1.44" shape="11064.46,4416.47 11065.35,4417.60"/>
    </edge>
    <edge id=":1514399351_18" function="internal">
        <lane id=":1514399351_18_0" index="0" disallow="tram rail_urban rail rail_electric rail_fast ship container cable_car subway aircraft wheelchair scooter drone" speed="7.88" length="10.46" shape="11068.05,4418.24 11070.12,4420.71 11070.68,4423.89 11069.72,4427.78"/>
    </edge>
    <edge id=":1514399351_19" function="internal">
        <lane id=":1514399351_19_0" index="0" disallow="tram rail_urban rail rail_electric rail_fast ship container cable_car subway aircraft wheelchair scooter drone" speed="3.65" length="3.23" shape="11065.35,4417.60 11065.48,4418.48 11064.86,4419.12 11063.47,4419.51"/>
    </edge>
    <edge id=":1514399351_12" function="internal">
        <lane id=":1514399351_12_0" index="0" disallow="tram rail_urban rail rail_electric rail_fast ship container cable_car subway aircraft wheelchair scooter drone" speed="6.36" length="9.04" shape="11066.76,4426.58 11067.36,4424.15 11067.01,4422.16 11065.71,4420.61 11063.47,4419.51"/>
    </edge>
    <edge id=":1514399351_13" function="internal">
        <lane id=":1514399351_13_0" index="0" disallow="tram rail_urban rail rail_electric rail_fast ship container cable_car subway aircraft wheelchair scooter drone" speed="13.89" length="16.08" shape="11066.76,4426.58 11068.35,4423.00 11070.23,4419.33 11072.28,4415.75 11074.38,4412.45"/>
    </edge>
    <edge id=":1514399351_14" function="internal">
        <lane id=":1514399351_14_0" index="0" disallow="tram rail_urban rail rail_electric rail_fast ship container cable_car subway aircraft wheelchair scooter drone" speed="8.66" length="15.50" shape="11066.76,4426.58 11068.80,4423.15 11071.61,4421.09 11075.19,4420.41 11079.52,4421.10"/>
    </edge>
    <edge id=":1514399351_15" function="internal">
        <lane id=":1514399351_15_0" index="0" disallow="tram rail_urban rail rail_electric rail_fast ship container cable_car subway aircraft wheelchair scooter drone" speed="3.65" length="4.67" shape="11066.76,4426.58 11067.95,4425.77 11068.84,4425.70 11069.43,4426.37 11069.72,4427.78"/>
    </edge>
    <edge id=":1535878697_0" function="internal">
        <lane id=":1535878697_0_0" index="0" disallow="tram rail_urban rail rail_electric rail_fast ship container cable_car subway aircraft wheelchair scooter drone" speed="3.65" length="4.67" shape="10489.16,4210.52 10488.83,4209.12 10489.08,4208.26 10489.92,4207.95 10491.34,4208.18"/>