<?xml version="1.0" encoding="UTF-8"?>
<configuration>
    <input>
        <net-file value="network.net.xml"/>
        <route-files value="routes.rou.xml"/>
    </input>
    <time>
        <begin value="0"/>
        <end value="3600"/>
    </time>
    <processing>
        <time-to-teleport value="300"/>
        <collision.action value="teleport"/>
        <collision.stoptime value="5"/>
    </processing>
</configuration>